/*--------------------------------*- C++ -*----------------------------------*\
| =========                 |                                                 |
| \\      /  F ield         | OpenFOAM: The Open Source CFD Toolbox           |
|  \\    /   O peration     | Version:  v2012                                 |
|   \\  /    A nd           | Website:  www.openfoam.com                      |
|    \\/     M anipulation  |                                                 |
\*---------------------------------------------------------------------------*/
FoamFile
{
    version     2.0;
    format      ascii;
    class       volVectorField;
    object      U;
}
// * * * * * * * * * * * * * * * * * * * * * * * * * * * * * * * * * * * * * //

#include        "include/initialConditions"

dimensions      [0 1 -1 0 0 0 0];

internalField   uniform (1 0 0);

boundaryField
{
    #includeEtc "caseDicts/setConstraintTypes"

    walls
    {
        type            noSlip;
    }

    Inlet
    {
        type            uniformFixedValue;
        uniformValue    $internalField;
    }

    Outlet
    {
        type            zeroGradient;   //calculated;
    }

    frontAndBack 
    {
        type empty;
    }

    #include "include/frontBackTopBottomfreePatches"
}

// ************************************************************************* //
